$ NASTRAN input file created by the Patran 2012 64-Bit input file
$ translator on November  22, 2013 at 11:02:19.
$ Linear Static Analysis, Database
$ Direct Text Input for Bulk Data
$ Elements and Element Properties for region : pbar.30
PBAR     30      2      .2536   .01835  .137475 5.41-4
$ Pset: "pbar.30" will be imported as: "pbar.30"
CBAR     16653   30      2513    4506   1.      8.193-6 -5.25-9
                         0.      0.     2.       0.      0.     2.
CBAR     18026   30      4359    1939   1.      8.193-6 -5.25-9
                         0.      0.     2.       0.      0.     2.
CBAR     18027   30      1939    4462   1.      8.193-6 -5.25-9
                         0.      0.     2.       0.      0.     2.
CBAR     18028   30      4462    2694   1.      8.193-6 -5.25-9
                         0.      0.     2.       0.      0.     2.
CBAR     18029   30      2694    4512   1.      8.193-6 -5.25-9
                         0.      0.     2.       0.      0.     2.
CBAR     18030   30      4512    2025   1.      8.193-6 -5.25-9
                         0.      0.     2.       0.      0.     2.
CBAR     18031   30      2025    4556   1.      8.193-6 -5.25-9
                         0.      0.     2.       0.      0.     2.
CBAR     18032   30      4556    2797   1.      8.193-6 -5.25-9
                         0.      0.     2.       0.      0.     2.
CBAR     18033   30      2797    4557   1.      8.193-6 -5.25-9
                         0.      0.     2.       0.      0.     2.
CBAR     18035   30      1973    4550   1.      8.193-6 -5.25-9
                         0.      0.     2.       0.      0.     2.
CBAR     18036   30      4550    1405   1.      8.193-6 -5.25-9
                         0.      0.     2.       0.      0.     2.
CBAR     18037   30      1405    4494   1.      8.193-6 -5.25-9
                         0.      0.     2.       0.      0.     2.
CBAR     18038   30      4494    2286   1.      8.193-6 -5.25-9
                         0.      0.     2.       0.      0.     2.
CBAR     18039   30      2286    4446   1.      8.193-6 -5.25-9
                         0.      0.     2.       0.      0.     2.
CBAR     1556578 30      2651    3262   -1.      0.      0.
                         0.      0.     -2.      0.      0.     -2.
CBAR     1556579 30      3262    1952   -1.      0.      0.
                         0.      0.     -2.      0.      0.     -2.
CBAR     1556580 30      1952    3260   -1.      0.      0.
                         0.      0.     -2.      0.      0.     -2.
CBAR     1556581 30      3260    2680   -1.      0.      0.
                         0.      0.     -2.      0.      0.     -2.
CBAR     1556582 30      2680    3258   -1.      0.      0.
                         0.      0.     -2.      0.      0.     -2.
CBAR     1556583 30      3258    2011   -1.      0.      0.
                         0.      0.     -2.      0.      0.     -2.
$ ... 2514 like lines cut
$ Elements and Element Properties for region : pbar.31
PBAR*    31              2              .5275           .12455
*       .749325         .001758
$ Pset: "pbar.31" will be imported as: "pbar.31"
CBAR     16613   31      1793    4833   1.      8.193-6 -5.25-9
                         0.      0.     3.       0.      0.     3.
CBAR     16730   31      2873    4821   1.      8.193-6 -5.25-9
                         0.      0.     3.       0.      0.     3.
CBAR     16731   31      4821    3160   1.      8.193-6 -5.25-9
                         0.      0.     3.       0.      0.     3.
CBAR     18679   31      4642    2987   1.      8.193-6 -5.25-9
                         0.      0.     3.       0.      0.     3.
CBAR     18680   31      2987    4644   1.      8.193-6 -5.25-9
                         0.      0.     3.       0.      0.     3.
CBAR     18681   31      4644    2836   1.      8.193-6 -5.25-9
                         0.      0.     3.       0.      0.     3.
CBAR     18682   31      2836    4646   1.      8.193-6 -5.25-9
                         0.      0.     3.       0.      0.     3.
CBAR     18683   31      4646    3121   1.      8.193-6 -5.25-9
                         0.      0.     3.       0.      0.     3.
CBAR     1556539 31      3635    1331   -1.      0.      0.
                         0.      0.     -3.      0.      0.     -3.
CBAR     1556540 31      1331    3633   -1.      0.      0.
                         0.      0.     -3.      0.      0.     -3.
CBAR     1556541 31      3633    1170   -1.      0.      0.
                         0.      0.     -3.      0.      0.     -3.
CBAR     1556542 31      1170    3631   -1.      0.      0.
                         0.      0.     -3.      0.      0.     -3.
CBAR     1556543 31      3631    2887   -1.      0.      0.
                         0.      0.     -3.      0.      0.     -3.
CBAR     1556544 31      2887    3629   -1.      0.      0.
                         0.      0.     -3.      0.      0.     -3.
CBAR     1556545 31      3629    1339   -1.      0.      0.
                         0.      0.     -3.      0.      0.     -3.
CBAR     1556546 31      1339    3627   -1.      0.      0.
                         0.      0.     -3.      0.      0.     -3.
CBAR     1556547 31      3627    1082   -1.      0.      0.
                         0.      0.     -3.      0.      0.     -3.
CBAR     1556548 31      1082    3625   -1.      0.      0.
                         0.      0.     -3.      0.      0.     -3.
CBAR     1556549 31      3625    2115   -1.      0.      0.
                         0.      0.     -3.      0.      0.     -3.
CBAR     1556550 31      2115    3623   -1.      0.      0.
                         0.      0.     -3.      0.      0.     -3.
$ ... 3410 like lines cut
$ Elements and Element Properties for region : pbar.32
PBAR     32      2      .48     5.76-4  .64     .00226
$ Pset: "pbar.32" will be imported as: "pbar.32"
CBAR*    20480           32              969             967
*       -.015041        -.0443          .998903
CBAR*    20493           32              943             941
*       -.015041        -.0443          .998903
CBAR*    20494           32              941             939
*       -.015041        -.0443          .998903
CBAR*    20495           32              939             937
*       -.015041        -.0443          .998903
CBAR*    20496           32              937             935
*       -.015041        -.0443          .998903
CBAR*    20497           32              935             933
*       -.015041        -.0443          .998903
CBAR*    20498           32              933             931
*       -.015041        -.0443          .998903
CBAR*    20499           32              931             929
*       -.015041        -.0443          .998903
CBAR*    20500           32              929             924
*       -.015041        -.0443          .998903
CBAR*    20501           32              924             927
*       -.015041        -.0443          .998903
CBAR*    1562137         32              7429            7428
*       -.015041        -.0443          .998903
CBAR*    1562138         32              7428            1027
*       -.015041        -.0443          .998903
CBAR*    1562139         32              1027            1023
*       -.015041        -.0443          .998903
CBAR*    1562140         32              1023            1021
*       -.015041        -.0443          .998903
CBAR*    1562141         32              1021            1019
*       -.015041        -.0443          .998903
CBAR*    1562142         32              1019            1017
*       -.015041        -.0443          .998903
CBAR*    1562143         32              1017            1015
*       -.015041        -.0443          .998903
CBAR*    1562144         32              1015            1013
*       -.015041        -.0443          .998903
CBAR*    1562145         32              1013            1011
*       -.015041        -.0443          .998903
CBAR*    1562146         32              1011            1009
*       -.015041        -.0443          .998903
$ ... 1688 like lines cut
$ Elements and Element Properties for region : pbar.33
PBAR*    33              2              .8              1.06667
*       .002667         .01033
$ Pset: "pbar.33" will be imported as: "pbar.33"
CBAR     35407   33      9923    6414   1.536-4 -1.     -7.1-16
CBAR     35408   33      13018   9990   1.536-4 -1.     -7.1-16
CBAR     43645   33      6973    9036   1.536-4 -1.     -7.1-16
CBAR     43646   33      9036    11583  1.536-4 -1.     -7.1-16
CBAR     43647   33      250     11044  1.536-4 -1.     -7.1-16
CBAR     43648   33      11044   11584  1.536-4 -1.     -7.1-16
CBAR     43649   33      6267    7337   1.536-4 -1.     -7.1-16
CBAR     43650   33      7337    11587  1.536-4 -1.     -7.1-16
CBAR     43651   33      6268    7338   1.536-4 -1.     -7.1-16
CBAR     43652   33      7338    11588  1.536-4 -1.     -7.1-16
CBAR     43653   33      6270    7339   1.536-4 -1.     -7.1-16
CBAR     43654   33      7339    11589  1.536-4 -1.     -7.1-16
CBAR     43655   33      6272    7340   1.536-4 -1.     -7.1-16
CBAR     43656   33      7340    11590  1.536-4 -1.     -7.1-16
CBAR     43657   33      6274    7341   1.536-4 -1.     -7.1-16
CBAR     43658   33      7341    11591  1.536-4 -1.     -7.1-16
CBAR     43659   33      6276    7342   1.536-4 -1.     -7.1-16
CBAR     43660   33      7342    11592  1.536-4 -1.     -7.1-16
CBAR     43661   33      6278    7343   1.536-4 -1.     -7.1-16
CBAR     43662   33      7343    11593  1.536-4 -1.     -7.1-16
$ ... 1237 like lines cut
CBAR*    1561201         33              6301            6303
*       .001163         -.999999         0.
CBAR     1561202 33      6303    6305   3.367-4 -1.      0.
CBAR     1561203 33      6305    6307   -5.14-5 -1.      0.
CBAR     1561204 33      6307    6309   2.567-4 -1.     2.93-17
CBAR     1561205 33      6309    6287   1.64-4  -1.     1.53-19
CBAR     1561206 33      6287    6284   2.105-5 -1.     1.91-20
CBAR     1561207 33      6284    6282   -1.34-5 -1.     9.55-21
CBAR*    1561208         33              6282            6280
*       .001187         -.999999        -1.3-16
CBAR     1561209 33      6280    6278   -.0021  -.999998 0.
CBAR*    1561210         33              6278            6276
*       -.00164         -.999999        1.22-18
CBAR     1561211 33      6276    6274   -3.69-4 -1.     4.19-17
CBAR     1561212 33      6274    6272   .00209  -.999998-2.5-18
CBAR*    1561213         33              6272            6270
*       .001369         -.999999         0.
CBAR     1561214 33      6270    6268   -9.15-4 -1.     6.14-19
CBAR     1561215 33      6268    6267    0.     -1.      0.
CBAR     1561216 33      6267    250     0.     -1.      0.
CBAR     1561217 33      250     6973   -1.25-4 -1.     -1.4-17
CBAR     1561218 33      6973    10823  1.053-4 -1.     1.19-17
CBAR     1561219 33      9058    993    -2.23-5 -1.     -1.8-15
CBAR     1561220 33      993     3086   -1.97-5 -1.     2.24-18
CBAR     1561221 33      3086    6482   -1.59-5 -1.     -1.8-15
CBAR     1561222 33      6482    6480   -1.2-5  -1.      0.
CBAR     1561223 33      6480    6478   -9.34-6 -1.     -1.1-18
CBAR     1561224 33      6478    6476   -6.89-6 -1.     -1.8-15
CBAR     1561225 33      6476    6474   -.0019  -.999998-1.2-18
CBAR     1561226 33      6474    6472   1.991-4 -1.     -2.3-17
CBAR*    1561227         33              6472            6470
*       .001728         -.999999        -1.6-15
CBAR     1561228 33      6470    6468   6.023-6 -1.     4.78-21
CBAR*    1561229         33              6468            6466
*       -.00168         -.999999        -1.8-15
CBAR     1561230 33      6466    6464   -3.66-4 -1.     1.78-15
CBAR     1561231 33      6464    6462   8.476-5 -1.      0.
CBAR     1561232 33      6462    6460   2.857-4 -1.      0.
CBAR*    1561233         33              6460            6459
*       .001726         -.999999        1.97-16
CBAR*    1561234         33              6459            6457
*       -.00159         -.999999        1.6-15
CBAR*    1561235         33              6457            6455
*       .001611         -.999999        -1.6-15
CBAR     1561236 33      6455    6452   -1.19-4 -1.     1.76-15
CBAR     1561237 33      6452    6450   -2.19-4 -1.     -2.5-17
CBAR     1561238 33      6450    6448   2.253-4 -1.     -1.8-15
CBAR     1561239 33      6448    6446   -1.8-5  -1.     1.77-15
CBAR     1561240 33      6446    6444   -3.65-5 -1.     -3.8-20
CBAR     1561241 33      6444    6442   -1.98-4 -1.     1.53-19
CBAR     1561242 33      6442    6441   1.624-4 -1.     1.78-15
CBAR     1561243 33      6441    3041   -1.01-4 -1.     1.78-15
CBAR     1561244 33      3041    6752   1.573-4 -1.     1.78-15
CBAR     1561245 33      6752    6753   -2.89-6 -1.     1.78-15
CBAR     1561246 33      9057    7584   -1.79-5 -1.      0.
CBAR     1561247 33      7584    1282   -3.75-5 -1.      0.
CBAR     1561248 33      1282    6352   -1.38-5 -1.     1.57-18
CBAR     1561249 33      6352    6351   -1.02-5 -1.     3.55-15
CBAR     1561250 33      6351    6348   -7.63-6 -1.     -8.6-19
CBAR     1561251 33      6348    6347   -5.32-6 -1.     6.07-19
CBAR     1561252 33      6347    6344   -3.-6   -1.     3.42-19
CBAR     1561253 33      6344    6342   -1.8-4  -1.     3.53-15
CBAR     1561254 33      6342    6341   3.374-5 -1.     3.86-18
CBAR     1561255 33      6341    6339   7.175-6 -1.     -3.6-15
$ ... 41 like lines cut
CBAR*    1561297         33              6485            3091
*       -.00155         -.999999        -1.4-18
CBAR*    1561298         33              3091            9030
*       .003097         -.999995        -7.1-15
CBAR     1561299 33      9030    9272   5.262-5 -1.     -7.1-15
CBAR     1561300 33      6809    50     -5.6-5  1.      2.36-20
CBAR     1561301 33      50      2577   -7.73-5 1.       0.
CBAR     1561302 33      2577    6397   -5.91-5 1.      7.11-15
CBAR     1561303 33      6397    6398   -4.25-5 1.      7.11-15
CBAR     1561304 33      6398    6400   -3.03-5 1.      3.44-18
CBAR     1561305 33      6400    6402   -2.12-5 1.      -7.1-15
CBAR     1561306 33      6402    6404   -1.53-5 1.      7.11-15
CBAR     1561307 33      6404    6406   -1.19-5 1.      -7.1-15
CBAR     1561308 33      6406    6408   -1.25-5 1.      -7.1-15
CBAR     1561309 33      6408    6410   -5.71-7 1.      7.11-15
CBAR     1561310 33      6410    6412   -6.27-6 1.      7.11-15
CBAR     1561311 33      6412    6415   1.924-5 1.      -7.1-15
CBAR     1561312 33      6415    6416   -3.15-5 1.      -2.-20
CBAR     1561313 33      6416    6418   -6.2-6  1.      -7.1-19
CBAR     1561314 33      6418    6420   -5.88-6 1.      -7.1-15
CBAR     1561315 33      6420    6422   1.305-5 1.      7.11-15
CBAR     1561316 33      6422    6425   -9.02-6 1.       0.
CBAR     1561317 33      6425    6426   -7.63-6 1.       0.
CBAR     1561318 33      6426    6428   3.582-6 1.      -7.1-15
CBAR     1561319 33      6428    6430   5.529-6 1.      -6.3-19
CBAR*    1561320         33              6430            6432
*       .001079         .999999         -1.3-18
CBAR     1561321 33      6432    6434   1.561-4 1.      1.79-17
CBAR     1561322 33      6434    6437   -.0036  .999994 -7.1-15
CBAR     1561323 33      6437    6438   2.508-4 1.      -7.1-15
CBAR*    1561324         33              6438            2623
*       .001473         .999999         7.27-15
CBAR     1561325 33      2623    17     1.563-5 1.      -7.1-15
CBAR     1561326 33      17      9051   1.129-4 1.      -5.-20
CBAR     1561327 33      9050    15     -6.8-5  -1.      0.
CBAR     1561328 33      15      2572   3.882-5 -1.     7.11-15
CBAR     1561329 33      2572    6395   5.762-4 -1.      0.
CBAR     1561330 33      6395    6393   3.432-5 -1.     -3.9-18
CBAR     1561331 33      6393    6391   3.432-5 -1.      0.
CBAR     1561332 33      6391    6183   3.432-5 -1.     -7.1-15
CBAR     1561333 33      6183    6389   3.432-5 -1.      0.
CBAR     1561334 33      6389    6387   3.432-5 -1.     -7.1-15
CBAR     1561335 33      6387    6385   3.432-5 -1.     3.9-18
CBAR     1561336 33      6385    6383   3.432-5 -1.     3.82-20
CBAR     1561337 33      6383    6381   3.432-5 -1.      0.
CBAR     1561338 33      6381    6379   3.432-5 -1.     3.82-20
CBAR     1561339 33      6379    6377   3.432-5 -1.     -7.1-15
CBAR     1561340 33      6377    6375   3.432-5 -1.      0.
CBAR     1561341 33      6375    6373   3.432-5 -1.     3.89-18
CBAR     1561342 33      6373    6371   3.432-5 -1.     7.11-15
CBAR     1561343 33      6371    6369   3.432-5 -1.     3.89-18
CBAR     1561344 33      6369    6367   3.432-5 -1.      0.
CBAR     1561345 33      6367    6365   3.432-5 -1.      0.
CBAR     1561346 33      6365    6363   3.432-5 -1.     3.85-18
CBAR     1561347 33      6363    6361   3.432-5 -1.     7.11-15
CBAR*    1561348         33              6361            6359
*       -.00137         -.999999        1.22-18
CBAR     1561349 33      6359    6357   -2.75-4 -1.     -7.1-15
CBAR*    1561350         33              6357            6355
*       .001747         -.999998        -2.-16
CBAR*    1561351         33              6355            2528
*       -.00133         -.999999        6.95-15
CBAR     1561352 33      2528    6813   9.132-5 -1.      0.
CBAR     1561353 33      6813    6810   1.491-4 -1.     7.09-15
CBAR     1561466 33      8669    8668   1.565-4 -1.     7.11-15
CBAR     1561467 33      8668    3118   1.536-4 -1.     -7.1-15
CBAR     1561468 33      3118    6505   1.451-4 -1.     7.09-15
CBAR     1561469 33      6505    6502   4.022-5 -1.     -7.1-15
CBAR     1561470 33      6502    6500   1.284-4 -1.     -7.1-15
CBAR     1561471 33      6500    6499   2.754-4 -1.     -7.1-15
CBAR     1561472 33      6499    6745   8.623-5 -1.     7.11-15
CBAR     1561473 33      6745    6496   -2.1-4  -1.     2.36-17
CBAR*    1561474         33              6496            6494
*       -.00198         -.999998        -2.2-16
CBAR*    1561475         33              6494            6490
*       -.00239         -.999997         0.
CBAR     1561476 33      6490    6493   -.0029  -.999996 0.
CBAR     1561477 33      6493    6741   -1.43-4 -1.     -1.6-17
CBAR     1561478 33      6741    6746   9.58-5  -1.     1.09-17
CBAR     1561479 33      6746    6739   -2.51-4 -1.     -2.9-17
CBAR     1561480 33      6739    6737   4.109-4 -1.     -7.1-15
CBAR     1561481 33      6737    6735   4.861-5 -1.     5.47-18
CBAR     1561482 33      6735    6733   -6.39-4 -1.     7.11-15
CBAR     1561483 33      6733    6691   6.784-4 -1.     -7.7-17
CBAR     1561484 33      6691    6688   -2.33-5 -1.     -2.6-18
CBAR     1561485 33      6688    6729   -2.11-5 -1.     7.11-15
CBAR     1561486 33      6729    6727   -3.77-5 -1.      0.
CBAR*    1561487         33              6727            6488
*       -.00175         -.999998        6.91-15
CBAR*    1561488         33              6488            6486
*       .003643         -.999993         0.
CBAR*    1561489         33              6486            6484
*       .003444         -.999994        7.49-15
CBAR     1561490 33      6484    3092   .00228  -.9999977.11-15
CBAR*    1561491         33              3092            182
*       -.00124         -.999999        1.41-16
CBAR     1561492 33      182     6774   9.975-4 -1.     7.22-15
CBAR     1561493 33      9207    49     4.061-4 1.      -4.6-17
CBAR     1561494 33      49      2578   8.724-4 1.      -1.-16
CBAR     1561495 33      2578    6396   1.108-4 1.      7.09-15
CBAR     1561496 33      6396    6399   9.434-5 1.      -8.6-20
CBAR     1561497 33      6399    6401   7.87-5  1.      7.11-15
CBAR     1561498 33      6401    6403   6.208-5 1.      7.11-15
CBAR     1561499 33      6403    6405   4.363-5 1.      4.93-18
CBAR     1561500 33      6405    6407   -9.6-4  1.      -7.-15
CBAR     1561501 33      6407    6409   9.882-4 1.      1.12-16
CBAR     1561502 33      6409    6411   -1.15-5 1.      7.1-15
CBAR     1561503 33      6411    6413   -2.76-5 1.      1.97-20
CBAR     1561504 33      6413    6414   -4.28-5 1.      -7.1-15
CBAR     1561505 33      6414    6417   -5.7-5  1.      6.52-18
CBAR     1561506 33      6417    6419   -7.03-5 1.      -8.-18
CBAR     1561507 33      6419    6421   -8.26-5 1.      -9.4-18
CBAR*    1561508         33              6421            6423
*       -.00274         .999996          0.
CBAR     1561509 33      6423    6424   .00175  .999999 -7.1-15
CBAR     1561510 33      6424    6427   3.408-4 1.      3.06-19
CBAR     1561511 33      6427    6429   1.293-4 1.      -7.1-15
CBAR     1561512 33      6429    6431   -4.99-5 1.      -7.1-15
CBAR*    1561513         33              6431            6433
*       -.00148         .999999         1.22-18
CBAR     1561514 33      6433    6435   7.403-4 1.      7.19-15
CBAR*    1561515         33              6435            6436
*       -.00209         .999998         7.11-15
CBAR     1561516 33      6436    6439   1.026-4 1.      -1.2-17
CBAR*    1561517         33              6439            2624
*       .001352         .999999         -1.5-16
CBAR     1561518 33      2624    18     -1.7-4  1.       0.
CBAR     1561519 33      18      8373   -1.38-4 1.      -7.1-15
CBAR     1561520 33      7588    7587   1.35-4  -1.     -1.-19
CBAR     1561521 33      7587    1283   2.163-4 -1.     3.55-15
CBAR     1561522 33      1283    6353   6.09-4  -1.     -3.5-15
CBAR     1561523 33      6353    6350   -3.66-4 -1.     3.59-15
CBAR     1561524 33      6350    6349   7.627-5 -1.     7.86-20
CBAR     1561525 33      6349    6346   6.643-5 -1.     7.54-18
CBAR     1561526 33      6346    6345   3.14-4  -1.     -3.6-15
CBAR     1561527 33      6345    6343   -2.14-5 -1.     3.55-15
CBAR     1561528 33      6343    6340   1.354-4 -1.     1.55-17
CBAR     1561529 33      6340    6338   1.3-4   -1.     -3.5-15
CBAR     1561530 33      6338    6337   1.232-4 -1.     1.41-17
CBAR     1561531 33      6337    6335   1.154-4 -1.     1.31-17
CBAR     1561532 33      6335    6333   1.045-4 -1.     7.73-20
CBAR     1561533 33      6333    6331   8.142-5 -1.      0.
CBAR     1561534 33      6331    6328   9.253-5 -1.     3.54-15
CBAR     1561535 33      6328    6327   6.645-5 -1.     7.66-20
CBAR     1561536 33      6327    6325   5.026-5 -1.     5.73-18
CBAR     1561537 33      6325    6322   3.392-5 -1.     -3.5-15
$ ... 7 like lines cut
CBAR*    1561545         33              1237            180
*       -.00136         -.999999        1.55-16
CBAR*    1561546         33              180             6895
*       -.00118         -.999999        3.69-15
CBAR*    1561547         33              8616            99
*       .001386         .999999         -1.6-16
CBAR*    1561548         33              99              3042
*       .001047         1.              -1.9-15
CBAR     1561549 33      3042    6440   -6.06-4 1.       0.
CBAR     1561550 33      6440    6443   -4.44-5 1.      -5.-18
CBAR     1561551 33      6443    6445   1.281-4 1.       0.
CBAR     1561552 33      6445    6447   -2.15-4 1.      -1.8-15
CBAR     1561553 33      6447    6449   2.015-4 1.      2.29-17
CBAR     1561554 33      6449    6451   -1.75-4 1.      -2.-17
CBAR     1561555 33      6451    6453   5.965-4 1.      -1.8-15
CBAR     1561556 33      6453    6454   1.388-4 1.      -1.6-17
CBAR*    1561557         33              6454            6456
*       -.00149         .999999         1.61-15
CBAR*    1561558         33              6456            6458
*       .001545         .999999         1.78-15
CBAR*    1561559         33              6458            6461
*       -.00182         .999998         1.78-15
CBAR     1561560 33      6461    6463   -3.75-4 1.      -3.1-19
CBAR     1561561 33      6463    6465   -1.87-4 1.      1.78-15
CBAR     1561562 33      6465    6467   2.119-4 1.      -1.8-15
CBAR*    1561563         33              6467            6469
*       .001604         .999999         -1.6-15
CBAR     1561564 33      6469    6471   -1.35-4 1.      -1.8-15
CBAR*    1561565         33              6471            6473
*       -.00189         .999998         -1.2-18
CBAR     1561566 33      6473    6475   -2.95-4 1.      -1.7-15
CBAR     1561567 33      6475    6477   -1.13-4 1.      -1.8-15
CBAR     1561568 33      6477    6479   1.157-5 1.      1.33-18
CBAR     1561569 33      6479    6481   2.886-4 1.       0.
CBAR     1561570 33      6481    6483   5.671-5 1.      -6.5-18
CBAR     1561571 33      6483    24     6.032-4 1.       0.
CBAR     1561572 33      24      82     -1.57-4 1.      -1.8-17
CBAR     1561573 33      82      8647   -2.24-4 1.      -2.6-17
CBAR     1561574 33      8904    81     -1.92-5 -1.     2.19-18
CBAR     1561575 33      81      901    4.72-4  -1.     5.37-17
CBAR     1561576 33      901     6289   5.073-5 -1.     5.77-18
CBAR*    1561577         33              6289            6290
*       .001196         -.999999        -1.3-18
CBAR     1561578 33      6290    6292   8.666-4 -1.      0.
CBAR     1561579 33      6292    6294   6.678-4 -1.     6.29-19
CBAR     1561580 33      6294    6296   -7.61-4 -1.     1.89-18
CBAR     1561581 33      6296    6298   -7.07-4 -1.      0.
CBAR*    1561582         33              6298            6300
*       -.00162         -.999999        -1.8-16
CBAR     1561583 33      6300    6302   -1.6-16 -1.      0.
CBAR     1561584 33      6302    6304   -8.58-4 -1.     9.7-17
CBAR*    1561585         33              6304            6306
*       -.00261         -.999997         0.
CBAR*    1561586         33              6306            6308
*       -.00108         -.999999        1.27-16
CBAR     1561587 33      6308    6286   2.761-4 -1.      0.
CBAR*    1561588         33              6286            6285
*       .002823         -.999996        3.22-16
CBAR*    1561589         33              6285            6283
*       .001447         -.999999        1.65-16
CBAR     1561590 33      6283    6281   -6.-16  -1.      0.
CBAR     1561591 33      6281    6279    0.     -1.      0.
CBAR     1561592 33      6279    6277    0.     -1.      0.
CBAR     1561593 33      6277    6275    0.     -1.      0.
CBAR     1561594 33      6275    6273    0.     -1.      0.
CBAR     1561595 33      6273    6271    0.     -1.      0.
CBAR     1561596 33      6271    6269    0.     -1.      0.
CBAR*    1561597         33              6269            6266
*       -.00198         -.999998        -1.2-18
CBAR*    1561598         33              6266            873
*       .001724         -.999999        -2.-16
CBAR     1561599 33      873     98     -1.53-4 -1.     -1.7-17
CBAR     1561600 33      98      6918   -8.37-4 -1.     9.54-17
CBAR     1561921 33      7554    7553   -.601062-.7992029.11-14
CBAR     1561922 33      7553    1231   -.601347-.7989886.84-14
CBAR     1561923 33      1231    1227   -.598616-.801036-4.5-14
CBAR     1561924 33      1227    1225   -.603318-.7975016.86-14
CBAR     1561925 33      1225    1223   -.601111-.7991656.83-14
CBAR     1561926 33      1223    1221   -.602645-.79801 -6.9-14
CBAR     1561927 33      1221    1219   -.601228-.7990776.8-14
CBAR     1561928 33      1219    1217   -.601207-.799093 0.
CBAR     1561929 33      1217    1215   -.600839-.79937 -4.5-14
CBAR     1561930 33      1215    1213   -.601537-.798845-6.9-14
CBAR     1561931 33      1213    1211   -.601212-.79909 -6.8-14
CBAR     1561932 33      1211    1209   -.601204-.799095-6.8-14
CBAR     1561933 33      1209    1207   -.601204-.7990956.87-14
CBAR     1561934 33      1207    1205   -.601188-.799108-9.1-14
CBAR     1561935 33      1205    1203   -.601215-.799087-2.1-16
CBAR     1561936 33      1203    1201   -.601196-.799102-6.8-14
CBAR     1561937 33      1201    1199   -.601219-.7990854.57-14
CBAR     1561938 33      1199    1197   -.601204-.7990954.03-16
$ ... 227 like lines cut
CBAR*    1565253         33              254             6186
*       -.081335        -.996687        9.32-15
CBAR*    1565254         33              6186            6188
*       -.081335        -.996687        -9.2-15
CBAR*    1565255         33              6188            6190
*       -.081335        -.996687        -7.5-17
CBAR*    1565256         33              6190            6182
*       -.081335        -.996687         0.
CBAR*    1565257         33              6182            6192
*       -.081335        -.996687        9.24-15
CBAR*    1565258         33              6192            6194
*       -.081335        -.996687        -1.4-14
CBAR*    1565259         33              6194            6196
*       -.081335        -.996687        -1.4-14
CBAR*    1565260         33              6196            6198
*       -.081335        -.996687        -1.4-14
CBAR*    1565261         33              6198            6200
*       -.081335        -.996687        -1.4-14
CBAR*    1565262         33              6200            6202
*       -.081335        -.996687        -7.4-17
CBAR*    1565263         33              6202            6204
*       -.081335        -.996687        9.26-15
CBAR*    1565264         33              6204            6206
*       -.081335        -.996687        1.42-14
CBAR*    1565265         33              6206            6208
*       -.081335        -.996687         0.
CBAR*    1565266         33              6208            6210
*       -.081335        -.996687        1.42-14
CBAR*    1565267         33              6210            6212
*       -.081335        -.996687        9.18-15
CBAR*    1565268         33              6212            6214
*       -.081335        -.996687        -9.2-15
CBAR*    1565269         33              6214            6216
*       -.081335        -.996687        -7.3-17
CBAR*    1565270         33              6216            6218
*       -.081335        -.996687        -4.9-15
CBAR*    1565271         33              6218            6220
*       -.081335        -.996687        1.41-14
CBAR*    1565272         33              6220            6222
*       -.081335        -.996687        -9.2-15
CBAR*    1565273         33              6222            6224
*       -.081335        -.996687        -2.3-14
CBAR*    1565274         33              6224            6226
*       -.081335        -.996687        -2.3-14
CBAR*    1565275         33              6226            296
*       -.081335        -.996687         0.
CBAR     1565276 33      296     7000   -.0813  -.996686 0.
CBAR     1565277 33      7000    7003   -.0813  -.996687-5.4-17
CBAR     1565282 33      8343    8341   2.438-4 -1.     -2.8-17
CBAR     1565283 33      8341    2569   -1.14-4 -1.     -1.3-17
CBAR     1565284 33      2569    6394   -8.19-4 -1.     -9.2-17
CBAR     1565285 33      6394    6392   3.58-5  -1.     -7.1-15
CBAR*    1565286         33              6392            6390
*       .001943         -.999998        2.21-16
CBAR*    1565287         33              6390            6184
*       -.00187         -.999998        -2.1-16
CBAR     1565288 33      6184    6388   3.58-5  -1.     7.11-15
CBAR     1565289 33      6388    6386   2.685-5 -1.     -3.1-18
CBAR     1565290 33      6386    6384   3.58-5  -1.     -7.1-15
CBAR     1565291 33      6384    6382   3.58-5  -1.     7.11-15
CBAR     1565292 33      6382    6380   3.58-5  -1.     -7.1-15
CBAR     1565293 33      6380    6378   3.58-5  -1.     7.11-15
CBAR     1565294 33      6378    6376   3.58-5  -1.     -7.1-15
CBAR     1565295 33      6376    6374   2.685-5 -1.     -7.1-15
CBAR     1565296 33      6374    6372   3.58-5  -1.     -7.1-15
CBAR     1565297 33      6372    6370   4.475-5 -1.     -7.1-15
CBAR     1565298 33      6370    6368   2.685-5 -1.     3.07-18
CBAR     1565299 33      6368    6366   3.58-5  -1.     -7.1-15
CBAR     1565300 33      6366    6364   3.58-5  -1.     7.11-15
CBAR     1565301 33      6364    6362   2.685-5 -1.     7.11-15
CBAR     1565302 33      6362    6360   3.58-5  -1.     7.11-15
CBAR     1565303 33      6360    6358   3.58-5  -1.     -7.1-15
CBAR     1565304 33      6358    6356   3.58-5  -1.     7.11-15
CBAR     1565305 33      6356    6354   3.58-5  -1.     -7.1-15
CBAR*    1565306         33              6354            2525
*       .001898         -.999998        6.89-15
CBAR     1565307 33      2525    185    -8.7-5  -1.      0.
CBAR     1565308 33      185     9204   -1.96-4 -1.     -7.1-15
CBAR     1565309 33      8343    8341   2.438-4 -1.     -2.8-17
CBAR     1565310 33      8341    8343   -2.44-4 1.      2.78-17
CBAR     1565315 33      9050    15     4.146-5 -1.     4.72-18
CBAR     1565316 33      15      9050   -4.15-5 1.      -4.7-18
CBAR     1565317 33      8895    8896   -.0814  -.9966819.25-15
CBAR     1565318 33      8896    251    -.0813  -.9966931.41-14
CBAR     1565319 33      251     6185   -.0815  -.9966711.1-16
CBAR     1565320 33      6185    6187   -.0814  -.996684 0.
CBAR     1565321 33      6187    6189   -.0813  -.996689 0.
CBAR     1565322 33      6189    6181   -.0821  -.996622-9.5-15
CBAR*    1565323         33              6181            6191
*       -.080615        -.996745         0.
CBAR     1565324 33      6191    6193   -.0814  -.996684-9.4-15
CBAR     1565325 33      6193    6195   -.0814  -.9966849.25-15
CBAR     1565326 33      6195    6197   -.0813  -.996687-7.5-17
CBAR     1565327 33      6197    6199   -.0813  -.996691-7.4-17
CBAR     1565328 33      6199    6201   -.0814  -.996683-9.2-15
CBAR     1565329 33      6201    6203   -.0814  -.9966829.22-15
CBAR     1565330 33      6203    6205   -.0813  -.9966927.34-17
CBAR     1565331 33      6205    6207   -.0815  -.996676 0.
CBAR     1565332 33      6207    6209   -.0812  -.9967   0.
CBAR     1565333 33      6209    6211   -.0814  -.996683-9.2-15
CBAR     1565334 33      6211    6213   -.0813  -.9966889.32-15
CBAR     1565335 33      6213    6215   -.0813  -.996687 0.
CBAR     1565336 33      6215    6217   -.0813  -.996689 0.
CBAR     1565337 33      6217    6219   -.0814  -.996685-7.3-17
CBAR     1565338 33      6219    6221   -.0813  -.9966949.32-15
CBAR     1565339 33      6221    6223   -.0814  -.996682-7.4-17
CBAR     1565340 33      6223    6225   -.0813  -.996687 0.
CBAR     1565341 33      6225    297    -.081   -.996712 0.
CBAR*    1565342         33              297             187
*       -.081335        -.996687        -4.9-15
CBAR*    1565343         33              187             9205
*       -.081335        -.996687        4.91-15
CBAR     1565344 33      7034    7031   -.112232-.993682-1.4-14
CBAR     1565345 33      7031    350    -.141652-.9899171.39-14
CBAR     1565346 33      350     6257   -.126808-.9919272.84-14
CBAR     1565347 33      6257    6255   -.126808-.9919272.93-16
CBAR     1565348 33      6255    6253   -.126808-.991927 0.
CBAR     1565349 33      6253    6251   -.126808-.991927-1.4-14
CBAR     1565350 33      6251    6249   -.126808-.991927-1.4-14
CBAR     1565351 33      6249    6247   -.126808-.9919272.86-14
CBAR     1565352 33      6247    6245   -.126808-.991927-1.4-16
CBAR     1565353 33      6245    6243   -.126808-.9919272.86-16
CBAR     1565354 33      6243    6241   -.126808-.991927-2.9-16
CBAR     1565355 33      6241    6239   -.126808-.991927 0.
CBAR     1565356 33      6239    6237   -.126808-.991927-1.4-14
CBAR     1565357 33      6237    6235   -.126808-.991927-1.4-14
CBAR     1565358 33      6235    6233   -.126808-.991927 0.
CBAR     1565359 33      6233    320    -.126808-.991927-1.4-14
CBAR     1565360 33      320     318    -.126808-.991927-7.-17
CBAR     1565361 33      318     316    -.126808-.9919271.4-14
CBAR     1565362 33      316     314    -.126808-.9919271.43-14
CBAR     1565363 33      314     312    -.126808-.9919272.08-16
$ ... 2230 like lines cut
$ Elements and Element Properties for region : pbar.34
PBAR     34      2      1.76    1.22896 6.81296 .02347
$ Pset: "pbar.34" will be imported as: "pbar.34"
CBAR     1556496 34      6267    6510   -1.      0.      0.
                         0.      0.     -6.      0.      0.     -6.
CBAR     1556497 34      6510    6441   -1.      0.      0.
                         0.      0.     -6.      0.      0.     -6.
CBAR     1556498 34      6441    6509   -1.      0.      0.
                         0.      0.     -6.      0.      0.     -6.
CBAR     1556499 34      6509    6311   -1.      0.      0.
                         0.      0.     -6.      0.      0.     -6.
CBAR     1556500 34      6311    6508   -1.      0.      0.
                         0.      0.     -6.      0.      0.     -6.
CBAR     1556501 34      6508    6485   -1.      0.      0.
                         0.      0.     -6.      0.      0.     -6.
CBAR     1556502 34      6485    6507   -1.      0.      0.
                         0.      0.     -6.      0.      0.     -6.
CBAR     1556503 34      6507    6397   -1.      0.      0.
                         0.      0.     -6.      0.      0.     -6.
CBAR     1556504 34      6397    6506   -1.      0.      0.
                         0.      0.     -6.      0.      0.     -6.
CBAR     1556505 34      6506    6355   -1.      0.      0.
                         0.      0.     -6.      0.      0.     -6.
CBAR     1556530 34      1182    4001   -1.      0.      0.
                         0.      0.     -6.      0.      0.     -6.
CBAR     1556531 34      4001    2219   -1.      0.      0.
                         0.      0.     -6.      0.      0.     -6.
CBAR     1556532 34      2219    3999   -1.      0.      0.
                         0.      0.     -6.      0.      0.     -6.
CBAR     1556533 34      3999    231    -1.      0.      0.
                         0.      0.     -6.      0.      0.     -6.
CBAR     1556534 34      231     232    -1.      0.      0.
                         0.      0.     -6.      0.      0.     -6.
CBAR     1556535 34      232     1701   -1.      0.      0.
                         0.      0.     -6.      0.      0.     -6.
CBAR     1556536 34      1701    3637   -1.      0.      0.
                         0.      0.     -6.      0.      0.     -6.
CBAR     1556537 34      3637    989    -1.      0.      0.
                         0.      0.     -6.      0.      0.     -6.
CBAR     1556538 34      989     3635   -1.      0.      0.
                         0.      0.     -6.      0.      0.     -6.
CBAR     1556608 34      6268    6511   -1.      0.      0.
                         0.      0.     -6.      0.      0.     -6.
$ ... 2306 like lines cut
CBAR*    1566154         34              6354            6225
*       .999996         -.00272         9.467-4
                         0.      0.     6.       0.      0.     6.
CBAR*    1566155         34              6225            301
*       .999996         -.00272         9.467-4
                         0.      0.     6.       0.      0.     6.
CBAR*    1566156         34              301             397
*       .999996         -.00272         9.467-4
                         0.      0.     6.       0.      0.     6.
CBAR*    1566157         34              397             406
*       .999996         -.00272         9.467-4
                         0.      0.     6.       0.      0.     6.
CBAR*    1566158         34              406             501
*       .999996         -.00272         9.467-4
                         0.      0.     6.       0.      0.     6.
CBAR*    1566159         34              501             510
*       .999996         -.00272         9.467-4
                         0.      0.     6.       0.      0.     6.
CBAR*    1566160         34              510             606
*       .999996         -.00272         9.467-4
                         0.      0.     6.       0.      0.     6.
CBAR*    1566161         34              606             658
*       .999996         -.00272         9.467-4
                         0.      0.     6.       0.      0.     6.
CBAR*    1566162         34              658             769
*       .999996         -.00272         9.467-4
                         0.      0.     6.       0.      0.     6.
CBAR*    1566163         34              769             762
*       .999996         -.00272         9.467-4
                         0.      0.     6.       0.      0.     6.
CBAR*    1566164         34              762             710
*       .999996         -.00272         9.467-4
                         0.      0.     6.       0.      0.     6.
CBAR*    1566165         34              710             1183
*       .999996         -.00272         9.467-4
                         0.      0.     6.       0.      0.     6.
CBAR*    1566166         34              6356            6223
*       .999996         -.00272         9.467-4
                         0.      0.     6.       0.      0.     6.
CBAR*    1566167         34              6223            305
*       .999996         -.00272         9.467-4
                         0.      0.     6.       0.      0.     6.
CBAR*    1566168         34              305             395
*       .999996         -.00272         9.467-4
                         0.      0.     6.       0.      0.     6.
CBAR*    1566169         34              395             409
*       .999996         -.00272         9.467-4
                         0.      0.     6.       0.      0.     6.
CBAR*    1566170         34              409             499
*       .999996         -.00272         9.467-4
                         0.      0.     6.       0.      0.     6.
CBAR*    1566171         34              499             513
*       .999996         -.00272         9.467-4
                         0.      0.     6.       0.      0.     6.
CBAR*    1566172         34              513             604
*       .999996         -.00272         9.467-4
                         0.      0.     6.       0.      0.     6.
CBAR*    1566173         34              604             656
*       .999996         -.00272         9.467-4
                         0.      0.     6.       0.      0.     6.
$ ... 732 like lines cut
$ Elements and Element Properties for region : pbar.35
PBAR     35      2      .165    .103984 4.95-5  1.953-4
$ Pset: "pbar.35" will be imported as: "pbar.35"
CBAR     34355   35      8385    13051  .601206 .799094 1.9-4
CBAR     34436   35      2709    8425   .601206 .799094 1.9-4
CBAR     34448   35      2697    8419   .601206 .799094 1.9-4
CBAR     34449   35      8419    13082  .601206 .799094 1.9-4
CBAR     34568   35      2783    13148  .601206 .799094 1.9-4
CBAR     34569   35      13148   13147  .601206 .799094 1.9-4
CBAR     34650   35      1414    7664   .601206 .799094 1.9-4
CBAR     34669   35      7655    12012  .601206 .799094 1.9-4
CBAR     34751   35      12137   12136  .601206 .799094 1.9-4
CBAR     34752   35      1570    12135  .601206 .799094 1.9-4
CBAR     34780   35      9249    12106  .601206 .799094 1.9-4
CBAR     34962   35      1830    12360  .601206 .799094 1.9-4
CBAR     36581   35      8049    2085   .601206 .799094 1.9-4
CBAR     36582   35      12613   8048   .601206 .799094 1.9-4
CBAR     36810   35      12072   12074  .601206 .799094 1.9-4
CBAR     36811   35      12074   1494   .601206 .799094 1.9-4
CBAR     37595   35      7766    7767   .601206 .799094 1.9-4
CBAR     37596   35      12102   7765   .601206 .799094 1.9-4
CBAR     37597   35      7765    1591   .601206 .799094 1.9-4
CBAR     37598   35      12101   10728  .601206 .799094 1.9-4
$ ... 4628 like lines cut
CBAR*    1564053         35              2412            2410
*       .001341         -.999999        -1.1-13
CBAR*    1564054         35              2410            2408
*       -.00133         -.999999         0.
CBAR*    1564055         35              2408            2405
*       .001216         -.999999        -1.1-13
CBAR     1564056 35      2405    15586  -.0012  -.999999-1.1-13
CBAR     1564057 35      15586   15599  8.188-6 -1.     1.42-21
CBAR     1564058 35      15599   15612  7.099-6 -1.     -1.1-13
CBAR     1564059 35      15612   15626  6.43-6  -1.     -7.3-19
CBAR     1564060 35      15626   2398   .00106  -.9999991.14-13
CBAR     1564061 35      2398    2396   -9.88-4 -1.     -1.8-19
CBAR     1564062 35      2396    2394   -3.1-5  -1.     1.14-13
CBAR     1564063 35      2394    22780  -2.61-5 -1.     1.14-13
CBAR     1564065 35      33813   22783  3.259-5 -1.     3.71-18
CBAR     1564066 35      22783   24386   0.     -1.      0.
CBAR     1564067 35      24386   2386    0.     -1.      0.
CBAR     1564068 35      2386    2384    0.     -1.      0.
CBAR     1564069 35      2384    2382    0.     -1.      0.
CBAR     1564070 35      2382    2380    0.     -1.      0.
CBAR     1564071 35      2380    2378    0.     -1.      0.
CBAR     1564072 35      2378    2375    0.     -1.      0.
CBAR     1564073 35      2375    83      0.     -1.      0.
CBAR     1564074 35      83      9239   1.103-4 -1.     -1.1-13
CBAR     1564075 35      104     84     -1.05-4 1.      -1.1-13
CBAR     1564076 35      84      2376   -4.17-4 1.       0.
$ ... 37 like lines cut
$ Elements and Element Properties for region : pshell.16
PSHELL   16      1      .25      1               1
$ Pset: "pshell.16" will be imported as: "pshell.16"
CQUAD4   2305    16      657     770     771     661     0.      0.
CQUAD4   2306    16      605     657     661     609     0.      0.
CQUAD4   2307    16      511     605     609     512     0.      0.
CQUAD4   2308    16      502     511     512     503     0.      0.
CQUAD4   2309    16      407     502     503     408     0.      0.
CQUAD4   2310    16      398     407     408     400     0.      0.
CQUAD4   2311    16      302     398     400     303     0.      0.
CQUAD4   2349    16      450     454     460     459     0.      0.
CQUAD4   2350    16      558     554     459     460     0.      0.
CQUAD4   2351    16      564     563     554     558     0.      0.
CQUAD4   2352    16      616     615     563     564     0.      0.
CQUAD4   2353    16      818     814     615     616     0.      0.
CQUAD4   2411    16      462     448     450     459     0.      0.
CQUAD4   2412    16      312     390     392     310     0.      0.
CQUAD4   2413    16      314     388     390     312     0.      0.
CQUAD4   2414    16      316     386     388     314     0.      0.
CQUAD4   2415    16      318     384     386     316     0.      0.
CQUAD4   2416    16      320     382     384     318     0.      0.
CQUAD4   2418    16      388     418     416     390     0.      0.
CQUAD4   2419    16      386     420     418     388     0.      0.
$ ... 2366 like lines cut
$ Elements and Element Properties for region : pshell.17
PSHELL   17      1      .21      1               1
$ Pset: "pshell.17" will be imported as: "pshell.17"
CQUAD4   60      17      231     232     233     234     0.      0.
CQUAD4   61      17      235     236     237     238     0.      0.
CQUAD4   1921    17      1170    3631    3632    1174    0.      0.
CQUAD4   1922    17      1331    3633    3634    1335    0.      0.
CQUAD4   1923    17      989     3635    3636    991     0.      0.
CQUAD4   1924    17      1701    3637    3638    1700    0.      0.
CQUAD4   1927    17      3642    987     985     3643    0.      0.
CQUAD4   1928    17      3635    989     987     3642    0.      0.
CQUAD4   1929    17      3644    3645    1306    154     0.      0.
CQUAD4   1930    17      3646    1309    1306    3645    0.      0.
CQUAD4   1931    17      3648    1329    1326    3647    0.      0.
CQUAD4   1932    17      3648    3633    1331    1329    0.      0.
CQUAD4   1938    17      3656    3657    1147    1145    0.      0.
CQUAD4   1939    17      3658    3656    1145    1143    0.      0.
CQUAD4   1940    17      3659    3658    1143    1141    0.      0.
CQUAD4   1941    17      3660    3659    1141    1139    0.      0.
CQUAD4   1942    17      3661    3660    1139    1136    0.      0.
CQUAD4   1943    17      3661    1136    1134    3662    0.      0.
CQUAD4   1972    17      1150    3691    3646    1149    0.      0.
CQUAD4   1977    17      3662    3694    2928    2926    0.      0.
$ ... 1842 like lines cut
$ Elements and Element Properties for region : pshell.18
PSHELL   18      1      .18      1               1
$ Pset: "pshell.18" will be imported as: "pshell.18"
CQUAD4   1869    18      3544    3545    1386    1382    0.      0.
CQUAD4   1870    18      3546    3547    1131    1127    0.      0.
CQUAD4   1871    18      3548    3549    2164    2160    0.      0.
CQUAD4   1872    18      3550    3551    2984    2980    0.      0.
CQUAD4   1873    18      3552    3553    2112    2108    0.      0.
CQUAD4   1874    18      3554    3555    1906    1902    0.      0.
CQUAD4   1875    18      3556    3557    1802    1798    0.      0.
CQUAD4   1876    18      3558    3559    1643    1639    0.      0.
CQUAD4   1877    18      3560    3561    1539    1535    0.      0.
CQUAD4   1912    18      1596    3613    3614    1597    0.      0.
CQUAD4   1913    18      1753    3615    3616    1756    0.      0.
CQUAD4   1914    18      1857    3617    3618    1860    0.      0.
CQUAD4   1915    18      2063    3619    3620    2066    0.      0.
CQUAD4   1916    18      2935    3621    3622    2938    0.      0.
CQUAD4   1917    18      2115    3623    3624    2118    0.      0.
CQUAD4   1918    18      1082    3625    3626    1085    0.      0.
CQUAD4   1919    18      1339    3627    3628    1340    0.      0.
CQUAD4   1920    18      2887    3629    3630    2890    0.      0.
CQUAD4   1984    18      1533    3701    3560    1535    0.      0.
CQUAD4   1985    18      1637    3702    3558    1639    0.      0.
$ ... 1780 like lines cut
$ Elements and Element Properties for region : pshell.19
PSHELL   19      1      .13      1               1
$ Pset: "pshell.19" will be imported as: "pshell.19"
CQUAD4   1878    19      3562    3563    1696    1692    0.      0.
CQUAD4   1879    19      3564    3565    973     969     0.      0.
CQUAD4   1880    19      3566    3567    3035    3031    0.      0.
CQUAD4   1881    19      3568    3569    2884    2880    0.      0.
CQUAD4   1882    19      3570    3571    3169    3165    0.      0.
CQUAD4   1883    19      3572    3573    870     865     0.      0.
CQUAD4   1884    19      3574    3575    2355    2351    0.      0.
CQUAD4   1901    19      2361    3595    3596    2360    0.      0.
CQUAD4   1902    19      2361    2364    3597    3595    0.      0.
CQUAD4   1903    19      2364    2366    3598    3597    0.      0.
CQUAD4   1904    19      822     825     3598    3599    0.      0.
CQUAD4   1905    19      3600    823     822     3599    0.      0.
CQUAD4   1906    19      3122    3601    3602    3123    0.      0.
CQUAD4   1907    19      2835    3603    3604    2838    0.      0.
CQUAD4   1908    19      2988    3605    3606    2989    0.      0.
CQUAD4   1909    19      924     3607    3608    927     0.      0.
CQUAD4   1910    19      1647    3609    3610    1650    0.      0.
CQUAD4   1911    19      1492    3611    3612    1493    0.      0.
CQUAD4   1925    19      3601    3639    825     822     0.      0.
CQUAD4   1926    19      3640    3641    829     827     0.      0.
$ ... 1488 like lines cut
$ Elements and Element Properties for region : pshell.20
PSHELL   20      1      .1       1               1
$ Pset: "pshell.20" will be imported as: "pshell.20"
CQUAD4   1525    20      2726    2723    3174    3173    0.      0.
CQUAD4   1526    20      3175    3176    2060    2056    0.      0.
CQUAD4   1527    20      2832    2828    3178    3177    0.      0.
CQUAD4   1528    20      2008    2004    3180    3179    0.      0.
CQUAD4   1529    20      1438    1434    3182    3181    0.      0.
CQUAD4   1530    20      2319    2316    3184    3183    0.      0.
CQUAD4   1570    20      1391    3250    3251    1392    0.      0.
CQUAD4   1571    20      1959    3252    3253    1962    0.      0.
CQUAD4   1572    20      2783    3254    3255    2786    0.      0.
CQUAD4   1573    20      2011    3256    3257    2014    0.      0.
CQUAD4   1574    20      2680    3258    3259    2681    0.      0.
CQUAD4   1575    20      1952    3260    3261    1956    0.      0.
CQUAD4   1576    20      2651    3262    3263    2655    0.      0.
CQUAD4   1577    20      2368    3264    3265    2372    0.      0.
CQUAD4   1580    20      3270    1924    1922    3269    0.      0.
CQUAD4   1581    20      3271    3269    1922    1920    0.      0.
CQUAD4   1582    20      3271    1920    1918    3272    0.      0.
CQUAD4   1583    20      3273    3272    1918    1916    0.      0.
CQUAD4   1584    20      3274    3275    1914    1911    0.      0.
CQUAD4   1585    20      3274    3174    2723    2721    0.      0.
$ ... 1580 like lines cut
$ Elements and Element Properties for region : pshell.21
PSHELL   21      1      .065     1               1
$ Pset: "pshell.21" will be imported as: "pshell.21"
CQUAD4   1531    21      1592    1587    3186    3185    0.      0.
CQUAD4   1532    21      2216    2212    3188    3187    0.      0.
CQUAD4   1533    21      2522    2518    3190    3189    0.      0.
CQUAD4   1534    21      2469    2465    3192    3191    0.      0.
CQUAD4   1535    21      1854    1849    3194    3193    0.      0.
CQUAD4   1536    21      2779    2776    3196    3195    0.      0.
CQUAD4   1537    21      1077    1075    3198    3197    0.      0.
CQUAD4   1559    21      3232    3233    1037    1039    0.      0.
CQUAD4   1560    21      3234    1035    1037    3233    0.      0.
CQUAD4   1561    21      3234    3235    1033    1035    0.      0.
CQUAD4   1562    21      83      1030    1033    3235    0.      0.
CQUAD4   1563    21      2732    2731    3236    3237    0.      0.
CQUAD4   1564    21      3239    1807    1808    3238    0.      0.
CQUAD4   1565    21      3241    2423    2422    3240    0.      0.
CQUAD4   1566    21      2473    3242    3243    2476    0.      0.
CQUAD4   1567    21      2167    3244    3245    2170    0.      0.
CQUAD4   1568    21      1543    3246    3247    1546    0.      0.
CQUAD4   1569    21      2272    3248    3249    2273    0.      0.
CQUAD4   1578    21      2731    2736    3266    3236    0.      0.
CQUAD4   1579    21      2738    2740    3267    3268    0.      0.
$ ... 152 like lines cut
CTRIA3   2814    21      84      2376    4271    0.      0.
CQUAD4   2815    21      2377    4272    4271    2376    0.      0.
CQUAD4   2816    21      4272    2377    2379    4273    0.      0.
CQUAD4   2817    21      4273    4274    1038    1036    0.      0.
CQUAD4   2818    21      4274    4275    1040    1038    0.      0.
CQUAD4   2819    21      2383    2385    4276    4275    0.      0.
CQUAD4   2839    21      2780    2775    4307    4308    0.      0.
CQUAD4   2840    21      1850    4309    4310    1853    0.      0.
CQUAD4   2841    21      2466    4311    4312    2470    0.      0.
CQUAD4   2842    21      2517    4313    4314    2521    0.      0.
CQUAD4   2843    21      2211    4315    4316    2215    0.      0.
CQUAD4   2844    21      1588    4317    4318    1591    0.      0.
CQUAD4   2845    21      2315    4319    4320    2320    0.      0.
CQUAD4   2852    21      2741    2739    4334    4335    0.      0.
CQUAD4   2853    21      2737    2735    4336    4337    0.      0.
CQUAD4   2864    21      2209    4350    4315    2211    0.      0.
CQUAD4   2865    21      2515    4351    4313    2517    0.      0.
CQUAD4   2866    21      2464    4352    4311    2466    0.      0.
CQUAD4   2883    21      1814    4370    4371    1816    0.      0.
CQUAD4   2884    21      1810    4372    4373    1812    0.      0.
CQUAD4   2885    21      4374    4375    1044    1046    0.      0.
$ ... 151 like lines cut
CTRIA3   6342    21      83      3235    2375    0.      0.
CQUAD4   6343    21      1030    3237    3236    1033    0.      0.
CQUAD4   6344    21      2732    3239    3238    2731    0.      0.
CQUAD4   6345    21      1808    1807    3241    3240    0.      0.
CQUAD4   6346    21      2422    2423    3243    3242    0.      0.
CQUAD4   6347    21      2476    3245    3244    2473    0.      0.
CQUAD4   6348    21      2170    3247    3246    2167    0.      0.
CQUAD4   6349    21      1546    3249    3248    1543    0.      0.
CQUAD4   6358    21      1033    3236    3266    1035    0.      0.
CQUAD4   6359    21      1037    3268    3267    1039    0.      0.
CQUAD4   6382    21      2736    2731    3238    3296    0.      0.
CQUAD4   6383    21      2740    2738    3298    3297    0.      0.
CQUAD4   6388    21      1035    3266    3268    1037    0.      0.
CQUAD4   6389    21      2738    2736    3296    3298    0.      0.
CQUAD4   6392    21      1039    3267    3305    1041    0.      0.
CQUAD4   6393    21      2742    2740    3297    3306    0.      0.
CQUAD4   6399    21      2774    2776    3198    3310    0.      0.
CQUAD4   6406    21      1548    1543    3248    3317    0.      0.
CQUAD4   6407    21      2172    2167    3246    3318    0.      0.
CQUAD4   6408    21      2478    2473    3244    3319    0.      0.
CQUAD4   6409    21      2426    2422    3242    3320    0.      0.
$ ... 1141 like lines cut
CTRIA3   29402   21      15586   15599   15587   0.      0.
CTRIA3   29405   21      15592   15593   15610   0.      0.
CQUAD4   1564251 21      8226    8225    2393    2395    0.      0.
CQUAD4   1564260 21      10932   10937   2396    2394    0.      0.
CQUAD4   1564325 21      2385    2388    4277    4276    0.      0.
CQUAD4   1564343 21      2384    2382    3232    3231    0.      0.
CQUAD4   1564354 21      3230    2386    2384    3231    0.      0.
CQUAD4   1564379 21      8220    8219    2381    2383    0.      0.
CQUAD4   1564380 21      2382    10897   10900   2384    0.      0.
CQUAD4   1564381 21      8220    2383    2385    8221    0.      0.
CQUAD4   1564382 21      10900   10905   2386    2384    0.      0.
CQUAD4   1564711 21      24386   2386    10905   29499   0.      0.
CQUAD4   1564712 21      12879   8221    26871   18801   0.      0.
CQUAD4   1564713 21      8221    2385    2388    26871   0.      0.
CQUAD4   1564714 21      10905   12879   18801   29499   0.      0.
CQUAD4   1564847 21      27210   27091   33796   19390   0.      0.
CQUAD4   1564848 21      8225    27210   19390   2393    0.      0.
CQUAD4   1564849 21      22890   23033   33800   33801   0.      0.
CQUAD4   1564850 21      22888   22890   33801   33803   0.      0.
CQUAD4   1564851 21      22886   22888   33803   33805   0.      0.
CQUAD4   1564852 21      22886   33805   33807   22885   0.      0.
CQUAD4   1564853 21      22885   33807   33809   22825   0.      0.
$ ... 74 like lines cut
CTRIA3   1564968 21      18991   33796   33819   0.      0.
CQUAD4   1564969 21      4301    33871   33870   15593   0.      0.
CQUAD4   1564970 21      4302    33872   33871   4301    0.      0.
CQUAD4   1564971 21      4303    33873   33872   4302    0.      0.
CQUAD4   1564972 21      4304    33874   33873   4303    0.      0.
CQUAD4   1564973 21      4305    33875   33874   4304    0.      0.
CQUAD4   1564974 21      4305    4306    33876   33875   0.      0.
CQUAD4   1564996 21      29746   33886   22783   29620   0.      0.
CQUAD4   1564997 21      26979   18992   18801   26871   0.      0.
CQUAD4   1564998 21      18992   29620   29499   18801   0.      0.
CQUAD4   1564999 21      29620   18992   19190   29746   0.      0.
CQUAD4   1565000 21      26979   27091   19190   18992   0.      0.
CQUAD4   1565001 21      33796   27091   26979   18991   0.      0.
CQUAD4   1565002 21      19391   19190   27091   27210   0.      0.
CQUAD4   1565003 21      29869   29746   19190   19391   0.      0.
CQUAD4   1565004 21      22780   33886   29746   29869   0.      0.
CQUAD4   1565005 21      12881   19391   27210   8225    0.      0.
CQUAD4   1565006 21      19391   12881   10932   29869   0.      0.
CQUAD4   1565007 21      2394    22780   29869   10932   0.      0.
CQUAD4   1565149 21      22783   24386   29499   29620   0.      0.
CQUAD4   1565150 21      26871   2388    18991   26979   0.      0.
$ ... 72 like lines cut
CTRIA3   1565241 21      22783   33813   33886   0.      0.
CQUAD4   1565242 21      29620   33887   33813   22783   0.      0.
CQUAD4   1565243 21      33887   29620   18992   33927   0.      0.
CQUAD4   1565244 21      33927   18992   26979   33902   0.      0.
CQUAD4   1565245 21      26979   18991   33819   33902   0.      0.
CQUAD4   1568326 21      83      2375    10885   33990   0.      0.
CQUAD4   1568337 21      84      33993   8217    2376    0.      0.
CQUAD4   1568338 21      33992   12871   8217    33993   0.      0.
CQUAD4   1568339 21      10885   12871   33992   33990   0.      0.
CQUAD4   1568344 21      33990   33989   9239    83      0.      0.
CQUAD4   1568345 21      33989   33990   33992   33983   0.      0.
CQUAD4   1568346 21      33978   33983   33992   33993   0.      0.
CQUAD4   1568347 21      33978   33993   84      104     0.      0.
$ Elements and Element Properties for region : pshell.22
PSHELL   22      1      .75      1               1
$ Pset: "pshell.22" will be imported as: "pshell.22"
CQUAD4   12367   22      6752    6753    6754    6755    0.      0.
CQUAD4   12371   22      82      6767    23      24      0.      0.
CQUAD4   12427   22      249     6755    6973    250     0.      0.
CQUAD4   13774   22      8701    8339    8341    8700    0.      0.
CQUAD4   13775   22      6963    8702    15      6964    0.      0.
CQUAD4   13776   22      7032    6963    6964    7031    0.      0.
CQUAD4   13777   22      8705    8664    8665    8704    0.      0.
CQUAD4   13778   22      8707    7583    7584    8706    0.      0.
CQUAD4   13779   22      8709    8643    993     8708    0.      0.
CQUAD4   13780   22      8711    7350    7351    8710    0.      0.
CQUAD4   13781   22      6955    7032    7031    6956    0.      0.
CQUAD4   13782   22      7094    6955    6956    10      0.      0.
CQUAD4   13872   22      8892    8893    9       8891    0.      0.
CQUAD4   13873   22      8894    7030    8893    8892    0.      0.
CQUAD4   13874   22      8895    8896    7030    8894    0.      0.
CQUAD4   13875   22      8343    8341    8896    8895    0.      0.
CQUAD4   13876   22      8373    18      8700    8897    0.      0.
CQUAD4   13877   22      8898    8669    8668    8899    0.      0.
CQUAD4   13878   22      7588    7587    8901    8900    0.      0.
CQUAD4   13879   22      8647    82      8903    8902    0.      0.
$ ... 188 like lines cut
$ Elements and Element Properties for region : pshell.23
PSHELL   23      1      .6       1               1
$ Pset: "pshell.23" will be imported as: "pshell.23"
CQUAD4   13783   23      6947    7094    10      6948    0.      0.
CQUAD4   13784   23      7156    6947    6948    7155    0.      0.
CQUAD4   13785   23      6939    7156    7155    6940    0.      0.
CQUAD4   13786   23      6935    6939    6940    6936    0.      0.
CQUAD4   13787   23      7302    6935    6936    7301    0.      0.
CQUAD4   13788   23      6927    7302    7301    6928    0.      0.
CQUAD4   13789   23      6931    6927    6928    6932    0.      0.
CQUAD4   13790   23      8713    7549    7550    8712    0.      0.
CQUAD4   13791   23      8715    8148    8149    8714    0.      0.
CQUAD4   13792   23      8717    7706    506     8716    0.      0.
CQUAD4   13793   23      8718    8719    8720    507     0.      0.
CQUAD4   13794   23      8722    8723    7424    7425    0.      0.
CQUAD4   13859   23      8871    8872    7425    8724    0.      0.
CQUAD4   13860   23      8873    8874    507     8722    0.      0.
CQUAD4   13861   23      8875    7710    506     8718    0.      0.
CQUAD4   13862   23      8876    8877    8149    8716    0.      0.
CQUAD4   13863   23      8878    8879    7550    8714    0.      0.
CQUAD4   13864   23      8879    8880    8712    7550    0.      0.
CQUAD4   13865   23      8712    8880    8881    8882    0.      0.
CQUAD4   13866   23      8881    8883    7300    8882    0.      0.
$ ... 196 like lines cut
$ Elements and Element Properties for region : pshell.24
PSHELL   24      1      .5       1               1
$ Pset: "pshell.24" will be imported as: "pshell.24"
CQUAD4   12368   24      39      6757    6756    6759    0.      0.
CQUAD4   12369   24      6760    7       13      14      0.      0.
CQUAD4   12424   24      6966    2       6968    6967    0.      0.
CQUAD4   12425   24      6970    3       6972    6969    0.      0.
CQUAD4   12426   24      6759    248     247     39      0.      0.
CQUAD4   13795   24      8724    8725    7597    7598    0.      0.
CQUAD4   13796   24      7523    8726    6760    7       0.      0.
CQUAD4   13819   24      8781    8782    8783    8784    0.      0.
CQUAD4   13820   24      8785    8786    8787    8788    0.      0.
CQUAD4   13821   24      8789    8790    8065    8066    0.      0.
CQUAD4   13822   24      8791    8792    8793    8794    0.      0.
CQUAD4   13823   24      8795    8796    8797    8798    0.      0.
CQUAD4   13824   24      8799    8800    8801    8802    0.      0.
CQUAD4   13825   24      8803    8804    7648    7649    0.      0.
CQUAD4   13826   24      8805    8806    8557    3       0.      0.
CQUAD4   13827   24      3       8557    8807    6972    0.      0.
CQUAD4   13841   24      8825    8828    8827    8826    0.      0.
CQUAD4   13842   24      8829    7489    7491    8830    0.      0.
CQUAD4   13843   24      8831    456     8095    8832    0.      0.
CQUAD4   13844   24      8833    8583    8585    8834    0.      0.
$ ... 316 like lines cut
$ Elements and Element Properties for region : pshell.25
PSHELL   25      1      .375     1               1
$ Pset: "pshell.25" will be imported as: "pshell.25"
CQUAD4   13810   25      8761    8199    8200    8762    0.      0.
CQUAD4   13811   25      8763    8764    8765    8766    0.      0.
CQUAD4   13812   25      8767    8768    8694    8695    0.      0.
CQUAD4   13813   25      8769    8770    8528    8529    0.      0.
CQUAD4   13814   25      8771    8772    8610    8611    0.      0.
CQUAD4   13815   25      8773    8774    7392    7393    0.      0.
CQUAD4   13816   25      8775    8776    7829    7830    0.      0.
CQUAD4   13817   25      8777    8778    7735    7736    0.      0.
CQUAD4   13818   25      8779    8780    7794    7795    0.      0.
CQUAD4   13848   25      8842    7798    7799    8843    0.      0.
CQUAD4   13849   25      8844    7739    7740    8845    0.      0.
CQUAD4   13850   25      8846    7827    8848    8847    0.      0.
CQUAD4   13851   25      8849    7390    8851    8850    0.      0.
CQUAD4   13852   25      8852    8855    8854    8853    0.      0.
CQUAD4   13853   25      8856    8526    8858    8857    0.      0.
CQUAD4   13854   25      8698    8699    8860    8859    0.      0.
CQUAD4   13855   25      8861    7332    7334    8862    0.      0.
CQUAD4   13856   25      8863    8203    8204    8864    0.      0.
CQUAD4   13857   25      8866    8204    8203    8865    0.      0.
CQUAD4   13911   25      8842    4692    1644    7798    0.      0.
$ ... 324 like lines cut
$ Elements and Element Properties for region : pshell.26
PSHELL   26      1      .2       1               1
$ Pset: "pshell.26" will be imported as: "pshell.26"
CQUAD4   12370   26      6762    6765    6764    6763    0.      0.
CQUAD4   13797   26      8727    8034    8035    8728    0.      0.
CQUAD4   13798   26      8730    8497    8498    8729    0.      0.
CQUAD4   13799   26      8732    8006    8007    8731    0.      0.
CQUAD4   13800   26      8734    8735    8736    8733    0.      0.
CQUAD4   13801   26      8738    8739    8740    8737    0.      0.
CQUAD4   13802   26      8742    7766    7767    8741    0.      0.
CQUAD4   13803   26      8744    8120    8121    8743    0.      0.
CQUAD4   13834   26      8816    7769    7767    8743    0.      0.
CQUAD4   13835   26      8817    8818    8740    8741    0.      0.
CQUAD4   13836   26      8819    8820    8736    8737    0.      0.
CQUAD4   13837   26      8821    8009    8007    8733    0.      0.
CQUAD4   13838   26      8822    8500    8498    8731    0.      0.
CQUAD4   13839   26      8823    8037    8035    8729    0.      0.
CQUAD4   13840   26      8728    8035    8037    8824    0.      0.
CQUAD4   13926   26      8743    7767    1591    4318    0.      0.
CQUAD4   13927   26      8741    8740    2320    4320    0.      0.
CQUAD4   13928   26      8737    8736    1439    4322    0.      0.
CQUAD4   13929   26      8733    8007    2007    4324    0.      0.
CQUAD4   13930   26      4326    8731    8498    2831    0.      0.
$ ... 252 like lines cut
$ Elements and Element Properties for region : pshell.27
PSHELL   27      1      .1       1               1
$ Pset: "pshell.27" will be imported as: "pshell.27"
CQUAD4   13804   27      8746    8296    8297    8745    0.      0.
CQUAD4   13805   27      8748    8749    8750    8747    0.      0.
CQUAD4   13806   27      8752    7920    7921    8751    0.      0.
CQUAD4   13807   27      8754    8755    8756    8753    0.      0.
CQUAD4   13808   27      8757    7460    86      8758    0.      0.
CQUAD4   13809   27      8759    8239    8240    8760    0.      0.
CQUAD4   13828   27      8760    8240    8241    8808    0.      0.
CQUAD4   13829   27      8809    8810    8756    8758    0.      0.
CQUAD4   13830   27      8811    7923    7921    8753    0.      0.
CQUAD4   13831   27      8812    8813    8750    8751    0.      0.
CQUAD4   13832   27      8814    8299    8297    8747    0.      0.
CQUAD4   13833   27      8815    8123    8121    8745    0.      0.
CQUAD4   13902   27      1078    86      8907    5414    0.      0.
CQUAD4   13921   27      2780    4308    8758    8756    0.      0.
CQUAD4   13922   27      8753    7921    1853    4310    0.      0.
CQUAD4   13923   27      4312    8751    8750    2470    0.      0.
CQUAD4   13924   27      8747    8297    2521    4314    0.      0.
CQUAD4   13925   27      8745    8121    2215    4316    0.      0.
CQUAD4   13976   27      9010    9009    223     6875    0.      0.
CQUAD4   13977   27      9012    9011    221     6835    0.      0.
$ ... 215 like lines cut
$ Elements and Element Properties for region : conm2
CONM2    1553315 33533   0      840.     0.      0.      0.
         0.      0.      0.      0.      0.      0.
CONM2    1553316 33534   0      840.     0.      0.      0.
         0.      0.      0.      0.      0.      0.
CONM2    1553317 33535   0      840.     0.      0.      0.
         0.      0.      0.      0.      0.      0.
CONM2    1553318 33536   0      840.     0.      0.      0.
         0.      0.      0.      0.      0.      0.
CONM2    1553319 33537   0      840.     0.      0.      0.
         0.      0.      0.      0.      0.      0.
CONM2    1553320 33538   0      840.     0.      0.      0.
         0.      0.      0.      0.      0.      0.
CONM2    1553321 33539   0      140.     0.      0.      0.
         0.      0.      0.      0.      0.      0.
CONM2    1553322 33540   0      140.     0.      0.      0.
         0.      0.      0.      0.      0.      0.
CONM2    1553323 33541   0      140.     0.      0.      0.
         0.      0.      0.      0.      0.      0.
CONM2    1553324 33550   0      240.     0.      0.      0.
         0.      0.      0.      0.      0.      0.
CONM2    1553325 33551   0      240.     0.      0.      0.
         0.      0.      0.      0.      0.      0.
CONM2    1553326 33544   0      320.     0.      0.      0.
         0.      0.      0.      0.      0.      0.
CONM2    1553327 33546   0      320.     0.      0.      0.
         0.      0.      0.      0.      0.      0.
CONM2    1553328 33547   0      320.     0.      0.      0.
         0.      0.      0.      0.      0.      0.
CONM2    1553329 33548   0      240.     0.      0.      0.
         0.      0.      0.      0.      0.      0.
CONM2    1553330 33549   0      320.     0.      0.      0.
         0.      0.      0.      0.      0.      0.
CONM2    1553331 33542   0      320.     0.      0.      0.
         0.      0.      0.      0.      0.      0.
CONM2    1553332 33543   0      320.     0.      0.      0.
         0.      0.      0.      0.      0.      0.
CONM2    1553333 33545   0      320.     0.      0.      0.
         0.      0.      0.      0.      0.      0.
CONM2    1553334 33532   0      840.     0.      0.      0.
         0.      0.      0.      0.      0.      0.
$ Referenced Material Records
$ Material Record : mat1.1
$ Description of Material :
MAT1     1      1.+7    3.8+6   .31     .101
$ Material Record : mat1.2
$ Description of Material :
MAT1     2      1.+7    3.8+6   .31     .101
$ Multipoint Constraints of the Entire Model
RBE3     1493945         33532   123456 1.       123     17      18
         82      7587    8668    8665    7584    993    1.       123456
         81      7351
RBE3     1493946         33533   123456 1.       123     7031    7030
         8341    15     1.       123456  9       10      7154    8885
         8882    6928    6936    7155
RBE3     1493947         33534   123456 1.       123     7550    8149
         506     507     9044    975     7553   1.       123456  971
RBE3     1493948         33535   123456 1.       123     8828    7649
        1.       123456  2       3       6       7       7425    7598
         10877   7428
RBE3     1493949         33536   123456 1.       123     7489    8063
         7951    8798    8066   1.       123456  456     8583    8802
         8794    8788
RBE3     1493950         33537   123456 1.       123     7888    7798
         7827    7390    8784    7736    7393   1.       123456  7739
         8852    7795    7830    8611
RBE3     1493951         33538   123456 1.       123     8526    8405
         8200   1.       123456  8698    7332    8203    8529    8695
         8766    8409
RBE3     1493952         33539   123456 1.       123     135     8007
         910    1.       123456  56      8498    8035    8439    10802
         906     908
RBE3     1493953         33540   123456 1.       123     8297    8121
         7767    8740    8736    912     914     916     919     921
RBE3     1493954         33541   123456 1.       123     7457    7921
         8240    8470    8750    8756    9094    9102    86      922
         33879   33882
RBE3     1493955         33543   123456 1.       123     49      50
         98      99      180     182     9030    9034    6752    6973
RBE3     1493956         33542   123456 1.       123     6813    7000
         6960    6952    7062    185     187     190     192     194
RBE3     1493957         33545   123456 1.       123     196     198
         200     202     204     206     663     6923    7215    7185
         6943    7124
RBE3     1493958         33544   123456 1.       123     35      38
         39      40      43      44      139     208     210     7405
         659     7243
RBE3     1493959         33547   123456 1.       123     142     144
         146     148     6906    8980    7515    8974    6889    8968
RBE3     1493960         33546   123456 1.       123     152     6783
         6844    158     160     162     8964    8960    8956    8952
         8948    6871
RBE3     1493961         33549   123456 1.       123     164     6868
         6914    170     172     173     6879    8940    8936    6778
         8930    6770
RBE3     1493962         33548   123456 1.       123     72      176
         6848    8994    7979    240     242     8391    9260    6802
         9257    6762
RBE3     1493963         33551   123456 1.       123     223     225
         228     230     6795    9255    9253    6885    6827    9249
RBE3     1493964         33550   123456 1.       123     104     105
         214     216     218     219     221     9247    608     6820
         612     6798    7432    9239
$ Nodes of the Entire Model
$ Damaged material/property
MAT1        1002   2e+06  760000     .31    .101
PSHELL      1035    1002     .13       1               1
$ Damaged material/property
MAT1        1003   2e+06  760000     .31    .101
PBAR        1036    1003    .165 .103984  4.95-5 1.953-4
GRID     2              1431.03 436.757 170.971
GRID     3              1431.03 436.756 190.614
GRID     6              1420.67 413.272 168.555
GRID     7              1420.67 413.271 189.251
GRID     9              1334.61 165.166 137.225
GRID     10             1334.61 165.165 170.352
GRID     13             1415.98 416.752 189.996
GRID     14             1411.62 403.832 189.258
GRID     15             1321.05 120.273 165.545
GRID     17             1319.42 96.2708 162.013
GRID     18             1319.42 96.2435 121.725
GRID     23             1312.42 11.7308 102.168
GRID     24             1312.5  24.2315 104.957
GRID     35             1262.22 438.62  172.43
GRID     38             1262.22 438.62  190.87
GRID     39             1247.62 418.326 171.314
GRID     40             1247.62 418.326 190.423
GRID     43             1233.32 397.792 170.028
GRID     44             1233.32 397.792 190.198
GRID     49             1042.23 96.2348 137.079
$ ... 10936 like lines cut
$ Loads for Load Case : Default
$ Displacement Constraints of Load Set : spc.2
SPC1     1       123     15      81      98      185     250     873
         898     901     2525    2528    2569    2572    6183    6184
SPC1     1       123     6266    THRU    6309
SPC1     1       123     6354    THRU    6395
SPC1     1       123     6810    6813    6916    6917    6918    6973
SPC1     1       123     7335    THRU    7364
SPC1     1       123     8341    8343    8904    9036    9050    9204
         9410    9473    9540    9606    9672    9736    9800    9863
         10823   11044   11045
SPC1     1       123     11580   THRU    11622
$ Referenced Coordinate Frames
